2LY:1501
     RDKit          3D

 22 23  0  0  0  0  0  0  0  0999 V2000
  -24.0230   15.1580   30.4680 C   0  0  0  0  0  0  0  0  0  0  0  0
  -23.3730   14.3100   29.4720 N   0  0  0  0  0  0  0  0  0  0  0  0
  -24.0070   13.6040   28.5280 C   0  0  0  0  0  0  0  0  0  0  0  0
  -23.1240   13.0960   27.4630 C   0  0  0  0  0  0  0  0  0  0  0  0
  -21.7090   13.2850   27.2510 C   0  0  0  0  0  0  0  0  0  0  0  0
  -21.2540   12.6660   26.0410 C   0  0  0  0  0  0  0  0  0  0  0  0
  -22.2470   11.9820   25.3890 C   0  0  0  0  0  0  0  0  0  0  0  0
  -23.7960   12.1810   26.1650 S   0  0  0  0  0  0  0  0  0  0  0  0
  -19.9520   12.7840   25.5900 O   0  0  0  0  0  0  0  0  0  0  0  0
  -19.2620   13.8770   26.2520 C   0  0  0  0  0  0  0  0  0  0  0  0
  -19.4800   13.8690   27.7260 C   0  0  0  0  0  0  0  0  0  0  0  0
  -20.8770   14.0180   28.0890 O   0  0  0  0  0  0  0  0  0  0  0  0
  -25.2370   13.4280   28.4700 O   0  0  0  0  0  0  0  0  0  0  0  0
  -23.2804   15.6031   31.0967 H   0  0  0  0  0  0  0  0  0  0  0  0
  -24.6856   14.5652   31.0634 H   0  0  0  0  0  0  0  0  0  0  0  0
  -24.5792   15.9268   29.9735 H   0  0  0  0  0  0  0  0  0  0  0  0
  -22.3905   14.2532   29.4970 H   0  0  0  0  0  0  0  0  0  0  0  0
  -22.0958   11.4161   24.5393 H   0  0  0  0  0  0  0  0  0  0  0  0
  -19.6227   14.8030   25.8552 H   0  0  0  0  0  0  0  0  0  0  0  0
  -18.2134   13.7595   26.0741 H   0  0  0  0  0  0  0  0  0  0  0  0
  -18.9267   14.6767   28.1577 H   0  0  0  0  0  0  0  0  0  0  0  0
  -19.1509   12.9201   28.0950 H   0  0  0  0  0  0  0  0  0  0  0  0
  1  2  1  0
  1 14  1  0
  1 15  1  0
  1 16  1  0
  2  3  1  0
  2 17  1  0
  3  4  1  0
  3 13  2  0
  4  5  2  0
  4  8  1  0
  5  6  1  0
  5 12  1  0
  6  9  1  0
  6  7  2  0
  7  8  1  0
  7 18  1  0
  9 10  1  0
 10 11  1  0
 10 19  1  0
 10 20  1  0
 11 12  1  0
 11 21  1  0
 11 22  1  0
M  END
$$$$
